
data_
_chemical_name_mineral ?Flourite?
_cell_length_a  5.3485(10)
_cell_length_b  5.3485(10)
_cell_length_c  5.3485(10)
_cell_angle_alpha 90
_cell_angle_beta  90
_cell_angle_gamma 90
_cell_volume 153.00(9)
_space_group Fm-3m
loop_
_symmetry_equiv_pos_as_xyz
	 'x, y, z '
	 '-x, -y, z '
	 '-x, -z, -y '
	 '-x, -z, y '
	 '-x, z, -y '
	 '-x, z, y '
	 '-x, y, -z '
	 '-x, y, z '
	 '-y, -x, -z '
	 '-y, -x, z '
	 '-y, -z, -x '
	 '-y, -z, x '
	 '-y, z, -x '
	 '-y, z, x '
	 '-y, x, -z '
	 '-y, x, z '
	 '-z, -x, -y '
	 '-z, -x, y '
	 '-z, -y, -x '
	 '-z, -y, x '
	 '-z, y, -x '
	 '-z, y, x '
	 '-z, x, -y '
	 '-z, x, y '
	 'z, -x, -y '
	 'z, -x, y '
	 'z, -y, -x '
	 'z, -y, x '
	 'z, y, -x '
	 'z, y, x '
	 'z, x, -y '
	 'z, x, y '
	 'y, -x, -z '
	 'y, -x, z '
	 'y, -z, -x '
	 'y, -z, x '
	 'y, z, -x '
	 'y, z, x '
	 'y, x, -z '
	 'y, x, z '
	 'x, -y, -z '
	 'x, -y, z '
	 'x, -z, -y '
	 'x, -z, y '
	 'x, z, -y '
	 'x, z, y '
	 'x, y, -z '
	 '-x, -y, -z '
	 'x+1/2, y+1/2, z '
	 '-x+1/2, -y+1/2, z '
	 '-x+1/2, -z+1/2, -y '
	 '-x+1/2, -z+1/2, y '
	 '-x+1/2, z+1/2, -y '
	 '-x+1/2, z+1/2, y '
	 '-x+1/2, y+1/2, -z '
	 '-x+1/2, y+1/2, z '
	 '-y+1/2, -x+1/2, -z '
	 '-y+1/2, -x+1/2, z '
	 '-y+1/2, -z+1/2, -x '
	 '-y+1/2, -z+1/2, x '
	 '-y+1/2, z+1/2, -x '
	 '-y+1/2, z+1/2, x '
	 '-y+1/2, x+1/2, -z '
	 '-y+1/2, x+1/2, z '
	 '-z+1/2, -x+1/2, -y '
	 '-z+1/2, -x+1/2, y '
	 '-z+1/2, -y+1/2, -x '
	 '-z+1/2, -y+1/2, x '
	 '-z+1/2, y+1/2, -x '
	 '-z+1/2, y+1/2, x '
	 '-z+1/2, x+1/2, -y '
	 '-z+1/2, x+1/2, y '
	 'z+1/2, -x+1/2, -y '
	 'z+1/2, -x+1/2, y '
	 'z+1/2, -y+1/2, -x '
	 'z+1/2, -y+1/2, x '
	 'z+1/2, y+1/2, -x '
	 'z+1/2, y+1/2, x '
	 'z+1/2, x+1/2, -y '
	 'z+1/2, x+1/2, y '
	 'y+1/2, -x+1/2, -z '
	 'y+1/2, -x+1/2, z '
	 'y+1/2, -z+1/2, -x '
	 'y+1/2, -z+1/2, x '
	 'y+1/2, z+1/2, -x '
	 'y+1/2, z+1/2, x '
	 'y+1/2, x+1/2, -z '
	 'y+1/2, x+1/2, z '
	 'x+1/2, -y+1/2, -z '
	 'x+1/2, -y+1/2, z '
	 'x+1/2, -z+1/2, -y '
	 'x+1/2, -z+1/2, y '
	 'x+1/2, z+1/2, -y '
	 'x+1/2, z+1/2, y '
	 'x+1/2, y+1/2, -z '
	 '-x+1/2, -y+1/2, -z '
	 'x+1/2, y, z+1/2 '
	 '-x+1/2, -y, z+1/2 '
	 '-x+1/2, -z, -y+1/2 '
	 '-x+1/2, -z, y+1/2 '
	 '-x+1/2, z, -y+1/2 '
	 '-x+1/2, z, y+1/2 '
	 '-x+1/2, y, -z+1/2 '
	 '-x+1/2, y, z+1/2 '
	 '-y+1/2, -x, -z+1/2 '
	 '-y+1/2, -x, z+1/2 '
	 '-y+1/2, -z, -x+1/2 '
	 '-y+1/2, -z, x+1/2 '
	 '-y+1/2, z, -x+1/2 '
	 '-y+1/2, z, x+1/2 '
	 '-y+1/2, x, -z+1/2 '
	 '-y+1/2, x, z+1/2 '
	 '-z+1/2, -x, -y+1/2 '
	 '-z+1/2, -x, y+1/2 '
	 '-z+1/2, -y, -x+1/2 '
	 '-z+1/2, -y, x+1/2 '
	 '-z+1/2, y, -x+1/2 '
	 '-z+1/2, y, x+1/2 '
	 '-z+1/2, x, -y+1/2 '
	 '-z+1/2, x, y+1/2 '
	 'z+1/2, -x, -y+1/2 '
	 'z+1/2, -x, y+1/2 '
	 'z+1/2, -y, -x+1/2 '
	 'z+1/2, -y, x+1/2 '
	 'z+1/2, y, -x+1/2 '
	 'z+1/2, y, x+1/2 '
	 'z+1/2, x, -y+1/2 '
	 'z+1/2, x, y+1/2 '
	 'y+1/2, -x, -z+1/2 '
	 'y+1/2, -x, z+1/2 '
	 'y+1/2, -z, -x+1/2 '
	 'y+1/2, -z, x+1/2 '
	 'y+1/2, z, -x+1/2 '
	 'y+1/2, z, x+1/2 '
	 'y+1/2, x, -z+1/2 '
	 'y+1/2, x, z+1/2 '
	 'x+1/2, -y, -z+1/2 '
	 'x+1/2, -y, z+1/2 '
	 'x+1/2, -z, -y+1/2 '
	 'x+1/2, -z, y+1/2 '
	 'x+1/2, z, -y+1/2 '
	 'x+1/2, z, y+1/2 '
	 'x+1/2, y, -z+1/2 '
	 '-x+1/2, -y, -z+1/2 '
	 'x, y+1/2, z+1/2 '
	 '-x, -y+1/2, z+1/2 '
	 '-x, -z+1/2, -y+1/2 '
	 '-x, -z+1/2, y+1/2 '
	 '-x, z+1/2, -y+1/2 '
	 '-x, z+1/2, y+1/2 '
	 '-x, y+1/2, -z+1/2 '
	 '-x, y+1/2, z+1/2 '
	 '-y, -x+1/2, -z+1/2 '
	 '-y, -x+1/2, z+1/2 '
	 '-y, -z+1/2, -x+1/2 '
	 '-y, -z+1/2, x+1/2 '
	 '-y, z+1/2, -x+1/2 '
	 '-y, z+1/2, x+1/2 '
	 '-y, x+1/2, -z+1/2 '
	 '-y, x+1/2, z+1/2 '
	 '-z, -x+1/2, -y+1/2 '
	 '-z, -x+1/2, y+1/2 '
	 '-z, -y+1/2, -x+1/2 '
	 '-z, -y+1/2, x+1/2 '
	 '-z, y+1/2, -x+1/2 '
	 '-z, y+1/2, x+1/2 '
	 '-z, x+1/2, -y+1/2 '
	 '-z, x+1/2, y+1/2 '
	 'z, -x+1/2, -y+1/2 '
	 'z, -x+1/2, y+1/2 '
	 'z, -y+1/2, -x+1/2 '
	 'z, -y+1/2, x+1/2 '
	 'z, y+1/2, -x+1/2 '
	 'z, y+1/2, x+1/2 '
	 'z, x+1/2, -y+1/2 '
	 'z, x+1/2, y+1/2 '
	 'y, -x+1/2, -z+1/2 '
	 'y, -x+1/2, z+1/2 '
	 'y, -z+1/2, -x+1/2 '
	 'y, -z+1/2, x+1/2 '
	 'y, z+1/2, -x+1/2 '
	 'y, z+1/2, x+1/2 '
	 'y, x+1/2, -z+1/2 '
	 'y, x+1/2, z+1/2 '
	 'x, -y+1/2, -z+1/2 '
	 'x, -y+1/2, z+1/2 '
	 'x, -z+1/2, -y+1/2 '
	 'x, -z+1/2, y+1/2 '
	 'x, z+1/2, -y+1/2 '
	 'x, z+1/2, y+1/2 '
	 'x, y+1/2, -z+1/2 '
	 '-x, -y+1/2, -z+1/2 '
loop_
_atom_site_label
_atom_site_fract_x
_atom_site_fract_y
_atom_site_fract_z
_atom_site_occupancy
_atom_site_B_iso_or_equiv
Bi 0 0 0 0.5 3.30(17)
Zr 0 0 0 0.5 3.30(17)
O 0.25 0.25 0.25 0.875 8.1(4)
loop_
_atom_site_aniso_label
_atom_site_aniso_U_11
_atom_site_aniso_U_22
_atom_site_aniso_U_33
_atom_site_aniso_U_12
_atom_site_aniso_U_13
_atom_site_aniso_U_23
Bi 0 0 0 0 0 0
Zr 0 0 0 0 0 0
O 0 0 0 0 0 0
