
data_
_chemical_name_mineral ?CTT?
_cell_length_a  10.29895(5)
_cell_length_b  10.29895(5)
_cell_length_c  10.29895(5)
_cell_angle_alpha 90
_cell_angle_beta  90
_cell_angle_gamma 90
_cell_volume 1092.393(16)
_space_group Fd-3mz
loop_
_symmetry_equiv_pos_as_xyz
	 'x, y, z '
	 '-x, -z, -y '
	 '-x+1/4, -z-1/4, y+1/2 '
	 '-x+1/4, y+1/2, -z-1/4 '
	 '-x+1/2, z-1/4, y+1/4 '
	 '-x+1/2, y+1/4, z-1/4 '
	 '-x-1/4, -y+1/4, z+1/2 '
	 '-x-1/4, z+1/2, -y+1/4 '
	 '-y, -x, -z '
	 '-y, -z, -x '
	 '-y+1/4, -x-1/4, z+1/2 '
	 '-y+1/4, z+1/2, -x-1/4 '
	 '-y+1/2, z+1/4, x-1/4 '
	 '-y+1/2, x-1/4, z+1/4 '
	 '-y-1/4, -z+1/4, x+1/2 '
	 '-y-1/4, x+1/2, -z+1/4 '
	 '-z, -x, -y '
	 '-z, -y, -x '
	 '-z+1/4, -y-1/4, x+1/2 '
	 '-z+1/4, x+1/2, -y-1/4 '
	 '-z+1/2, y-1/4, x+1/4 '
	 '-z+1/2, x+1/4, y-1/4 '
	 '-z-1/4, -x+1/4, y+1/2 '
	 '-z-1/4, y+1/2, -x+1/4 '
	 'z, y, x '
	 'z, x, y '
	 'z+1/4, -y+1/2, x-1/4 '
	 'z+1/4, x-1/4, -y+1/2 '
	 'z+1/2, -x-1/4, -y+1/4 '
	 'z+1/2, -y+1/4, -x-1/4 '
	 'z-1/4, -x+1/2, y+1/4 '
	 'z-1/4, y+1/4, -x+1/2 '
	 'y, z, x '
	 'y, x, z '
	 'y+1/4, -x+1/2, z-1/4 '
	 'y+1/4, z-1/4, -x+1/2 '
	 'y+1/2, -x+1/4, -z-1/4 '
	 'y+1/2, -z-1/4, -x+1/4 '
	 'y-1/4, -z+1/2, x+1/4 '
	 'y-1/4, x+1/4, -z+1/2 '
	 'x, z, y '
	 '-x, -y, -z '
	 'x+1/4, -z+1/2, y-1/4 '
	 'x+1/4, y-1/4, -z+1/2 '
	 'x+1/2, -y-1/4, -z+1/4 '
	 'x+1/2, -z+1/4, -y-1/4 '
	 'x-1/4, -y+1/2, z+1/4 '
	 'x-1/4, z+1/4, -y+1/2 '
	 'x+1/2, y+1/2, z '
	 '-x+1/2, -z+1/2, -y '
	 '-x-1/4, -z+1/4, y+1/2 '
	 '-x-1/4, y, -z-1/4 '
	 '-x, z+1/4, y+1/4 '
	 '-x, y-1/4, z-1/4 '
	 '-x+1/4, -y-1/4, z+1/2 '
	 '-x+1/4, z, -y+1/4 '
	 '-y+1/2, -x+1/2, -z '
	 '-y+1/2, -z+1/2, -x '
	 '-y-1/4, -x+1/4, z+1/2 '
	 '-y-1/4, z, -x-1/4 '
	 '-y, z-1/4, x-1/4 '
	 '-y, x+1/4, z+1/4 '
	 '-y+1/4, -z-1/4, x+1/2 '
	 '-y+1/4, x, -z+1/4 '
	 '-z+1/2, -x+1/2, -y '
	 '-z+1/2, -y+1/2, -x '
	 '-z-1/4, -y+1/4, x+1/2 '
	 '-z-1/4, x, -y-1/4 '
	 '-z, y+1/4, x+1/4 '
	 '-z, x-1/4, y-1/4 '
	 '-z+1/4, -x-1/4, y+1/2 '
	 '-z+1/4, y, -x+1/4 '
	 'z+1/2, y+1/2, x '
	 'z+1/2, x+1/2, y '
	 'z-1/4, -y, x-1/4 '
	 'z-1/4, x+1/4, -y+1/2 '
	 'z, -x+1/4, -y+1/4 '
	 'z, -y-1/4, -x-1/4 '
	 'z+1/4, -x, y+1/4 '
	 'z+1/4, y-1/4, -x+1/2 '
	 'y+1/2, z+1/2, x '
	 'y+1/2, x+1/2, z '
	 'y-1/4, -x, z-1/4 '
	 'y-1/4, z+1/4, -x+1/2 '
	 'y, -x-1/4, -z-1/4 '
	 'y, -z+1/4, -x+1/4 '
	 'y+1/4, -z, x+1/4 '
	 'y+1/4, x-1/4, -z+1/2 '
	 'x+1/2, z+1/2, y '
	 '-x+1/2, -y+1/2, -z '
	 'x-1/4, -z, y-1/4 '
	 'x-1/4, y+1/4, -z+1/2 '
	 'x, -y+1/4, -z+1/4 '
	 'x, -z-1/4, -y-1/4 '
	 'x+1/4, -y, z+1/4 '
	 'x+1/4, z-1/4, -y+1/2 '
	 'x+1/2, y, z+1/2 '
	 '-x+1/2, -z, -y+1/2 '
	 '-x-1/4, -z-1/4, y '
	 '-x-1/4, y+1/2, -z+1/4 '
	 '-x, z-1/4, y-1/4 '
	 '-x, y+1/4, z+1/4 '
	 '-x+1/4, -y+1/4, z '
	 '-x+1/4, z+1/2, -y-1/4 '
	 '-y+1/2, -x, -z+1/2 '
	 '-y+1/2, -z, -x+1/2 '
	 '-y-1/4, -x-1/4, z '
	 '-y-1/4, z+1/2, -x+1/4 '
	 '-y, z+1/4, x+1/4 '
	 '-y, x-1/4, z-1/4 '
	 '-y+1/4, -z+1/4, x '
	 '-y+1/4, x+1/2, -z-1/4 '
	 '-z+1/2, -x, -y+1/2 '
	 '-z+1/2, -y, -x+1/2 '
	 '-z-1/4, -y-1/4, x '
	 '-z-1/4, x+1/2, -y+1/4 '
	 '-z, y-1/4, x-1/4 '
	 '-z, x+1/4, y+1/4 '
	 '-z+1/4, -x+1/4, y '
	 '-z+1/4, y+1/2, -x-1/4 '
	 'z+1/2, y, x+1/2 '
	 'z+1/2, x, y+1/2 '
	 'z-1/4, -y+1/2, x+1/4 '
	 'z-1/4, x-1/4, -y '
	 'z, -x-1/4, -y-1/4 '
	 'z, -y+1/4, -x+1/4 '
	 'z+1/4, -x+1/2, y-1/4 '
	 'z+1/4, y+1/4, -x '
	 'y+1/2, z, x+1/2 '
	 'y+1/2, x, z+1/2 '
	 'y-1/4, -x+1/2, z+1/4 '
	 'y-1/4, z-1/4, -x '
	 'y, -x+1/4, -z+1/4 '
	 'y, -z-1/4, -x-1/4 '
	 'y+1/4, -z+1/2, x-1/4 '
	 'y+1/4, x+1/4, -z '
	 'x+1/2, z, y+1/2 '
	 '-x+1/2, -y, -z+1/2 '
	 'x-1/4, -z+1/2, y+1/4 '
	 'x-1/4, y-1/4, -z '
	 'x, -y-1/4, -z-1/4 '
	 'x, -z+1/4, -y+1/4 '
	 'x+1/4, -y+1/2, z-1/4 '
	 'x+1/4, z+1/4, -y '
	 'x, y+1/2, z+1/2 '
	 '-x, -z+1/2, -y+1/2 '
	 '-x+1/4, -z+1/4, y '
	 '-x+1/4, y, -z+1/4 '
	 '-x+1/2, z+1/4, y-1/4 '
	 '-x+1/2, y-1/4, z+1/4 '
	 '-x-1/4, -y-1/4, z '
	 '-x-1/4, z, -y-1/4 '
	 '-y, -x+1/2, -z+1/2 '
	 '-y, -z+1/2, -x+1/2 '
	 '-y+1/4, -x+1/4, z '
	 '-y+1/4, z, -x+1/4 '
	 '-y+1/2, z-1/4, x+1/4 '
	 '-y+1/2, x+1/4, z-1/4 '
	 '-y-1/4, -z-1/4, x '
	 '-y-1/4, x, -z-1/4 '
	 '-z, -x+1/2, -y+1/2 '
	 '-z, -y+1/2, -x+1/2 '
	 '-z+1/4, -y+1/4, x '
	 '-z+1/4, x, -y+1/4 '
	 '-z+1/2, y+1/4, x-1/4 '
	 '-z+1/2, x-1/4, y+1/4 '
	 '-z-1/4, -x-1/4, y '
	 '-z-1/4, y, -x-1/4 '
	 'z, y+1/2, x+1/2 '
	 'z, x+1/2, y+1/2 '
	 'z+1/4, -y, x+1/4 '
	 'z+1/4, x+1/4, -y '
	 'z+1/2, -x+1/4, -y-1/4 '
	 'z+1/2, -y-1/4, -x+1/4 '
	 'z-1/4, -x, y-1/4 '
	 'z-1/4, y-1/4, -x '
	 'y, z+1/2, x+1/2 '
	 'y, x+1/2, z+1/2 '
	 'y+1/4, -x, z+1/4 '
	 'y+1/4, z+1/4, -x '
	 'y+1/2, -x-1/4, -z+1/4 '
	 'y+1/2, -z+1/4, -x-1/4 '
	 'y-1/4, -z, x-1/4 '
	 'y-1/4, x-1/4, -z '
	 'x, z+1/2, y+1/2 '
	 '-x, -y+1/2, -z+1/2 '
	 'x+1/4, -z, y+1/4 '
	 'x+1/4, y+1/4, -z '
	 'x+1/2, -y+1/4, -z-1/4 '
	 'x+1/2, -z-1/4, -y+1/4 '
	 'x-1/4, -y, z-1/4 '
	 'x-1/4, z-1/4, -y '
loop_
_atom_site_label
_atom_site_fract_x
_atom_site_fract_y
_atom_site_fract_z
_atom_site_occupancy
_atom_site_B_iso_or_equiv
Cs 0.375 0.375 0.375 1 0.78(3)
Ta 0 0 0 0.5 0.087(15)
Te 0 0 0 0.5 0.087(15)
O1 0.3159 0.125 0.125 1 0.69(18)
loop_
_atom_site_aniso_label
_atom_site_aniso_U_11
_atom_site_aniso_U_22
_atom_site_aniso_U_33
_atom_site_aniso_U_12
_atom_site_aniso_U_13
_atom_site_aniso_U_23
Cs 0 0 0 0 0 0
Ta 0 0 0 0 0 0
Te 0 0 0 0 0 0
O1 0 0 0 0 0 0
